Line from demo2-a
adding a new file.
New lIne.
New Line.
New line.
This is a test file.
