New Line.
New line.
This is a test file.
