Adding new line.
New Line.
Adding a new line.
Adding a new change.
Adding a new line.
Adding another line.
Adding new line.
This is also another test file.
