Adding a new line.
adding nl
New line. 
Adding a change.
